-------------------------------------------------------
          Amber 10 SANDER                              2008
          -------------------------------------------------------

  [-O]verwriting output

File Assignments:

 Here is the input file:

*******************************************************
*****************************       eq2.in
*******************************************************
Equilibrating. 2.0 kcal/mol restraints on DNA/RNA.
 &cntrl
    ntpr=500, ntwr=500, ntwx=500, ntwe=500, nscm=5000,
    ntf=2, ntc=2, ntb=2, ntp=1, ntt=1,
    tautp=0.5, taup=1.0, cut=9.0,
    nstlim=50000, t=0.0, dt=0.002, tol = 0.00000001,
    imin=0, ntx=1, irest=0, ioutfm=1,
    ntr=1,
    nmropt=1,
 /
 &wt type = 'END', /
Hold RNA Steady
2.0
RES 1 45
END
END

--------------------------------------------------------------------------------
   1.  RESOURCE   USE:
--------------------------------------------------------------------------------

 getting new box info from bottom of inpcrd

 NATOM  =   20563 NTYPES =      20 NBONH =   19805 MBONA  =     795
 NTHETH =    1041 MTHETA =    1201 NPHIH =    2116 MPHIA  =    2348
 NHPARM =       0 NPARM  =       0 NNB   =   32409 NRES   =    6525
 NBONA  =     795 NTHETA =    1201 NPHIA =    2348 NUMBND =      51
 NUMANG =     112 NPTRA  =      62 NATYP =      33 NPHB   =       1
 IFBOX  =       2 NMXRS  =      34 IFCAP =       0 NEXTRA =       0
 NCOPY  =       0

     BOX TYPE: TRUNCATED OCTAHEDRON

--------------------------------------------------------------------------------
   2.  CONTROL  DATA  FOR  THE  RUN
--------------------------------------------------------------------------------

General flags:
     imin    =       0, nmropt  =       1

Nature and format of input:
     ntx     =       1, irest   =       0, ntrx    =       1

Nature and format of output:
     ntxo    =       1, ntpr    =     500, ntrx    =       1, ntwr    =     500
     iwrap   =       0, ntwx    =     500, ntwv    =       0, ntwe    =     500
     ioutfm  =       1, ntwprt  =       0, idecomp =       0, rbornstat=      0

Potential function:
     ntf     =       2, ntb     =       2, igb     =       0, nsnb    =      25
     ipol    =       0, gbsa    =       0, iesp    =       0
     dielc   =   1.00000, cut     =   9.00000, intdiel =   1.00000
     scnb    =   2.00000, scee    =   1.20000

Frozen or restrained atoms:
     ibelly  =       0, ntr     =       1

Molecular dynamics:
     nstlim  =     50000, nscm    =      5000, nrespa  =         1
     t       =   0.00000, dt      =   0.00200, vlimit  =  20.00000

Berendsen (weak-coupling) temperature regulation:
     temp0   = 300.00000, tempi   =   0.00000, tautp   =   0.50000

Pressure regulation:
     ntp     =       1
     pres0   =   1.00000, comp    =  44.60000, taup    =   1.00000

SHAKE:
     ntc     =       2, jfastw  =       0
     tol     =   0.00000

NMR refinement options:
     iscale  =       0, noeskp  =       1, ipnlty  =       1, mxsub   =       1
     scalm   = 100.00000, pencut  =   0.10000, tausw   =   0.10000

Ewald parameters:
     verbose =       0, ew_type =       0, nbflag  =       1, use_pme =       1
     vdwmeth =       1, eedmeth =       1, netfrc  =       1
     Box X =   64.355   Box Y =   64.355   Box Z =   64.355
     Alpha =  109.471   Beta  =  109.471   Gamma =  109.471
     NFFT1 =   70       NFFT2 =   70       NFFT3 =   70
     Cutoff=    9.000   Tol   =0.100E-04
     Ewald Coefficient =  0.30768
     Interpolation order =    4

    LOADING THE CONSTRAINED ATOMS AS GROUPS

   5.  REFERENCE ATOM COORDINATES

    ----- READING GROUP     1; TITLE:
 Hold RNA Steady

     GROUP    1 HAS HARMONIC CONSTRAINTS     2.00000
 GRP    1 RES    1 TO    45
      Number of atoms in this group  =  1185
    ----- END OF GROUP READ -----

--------------------------------------------------------------------------------
   3.  ATOMIC COORDINATES AND VELOCITIES
--------------------------------------------------------------------------------

 begin time read from input coords =     0.000 ps

           Begin reading energy term weight changes/NMR restraints
 WEIGHT CHANGES:
                         ** No weight changes given **

 RESTRAINTS:
  No valid redirection requests found
                          ** No restraint defined **

                  Done reading weight changes/NMR restraints

 Number of triangulated 3-point waters found:     6449

     Sum of charges from parm topology file =   0.00000001
     Forcing neutrality...

--------------------------------------------------------------------------------
   4.  RESULTS
 NSTEP =        0   TIME(PS) =       0.000  TEMP(K) =     0.00  PRESS = -7147.1
 Etot   =   -100247.6119  EKtot   =         0.0000  EPtot      =   -100247.6119
 BOND   =        69.6132  ANGLE   =       211.9639  DIHED      =       869.4440
 1-4 NB =       278.0107  1-4 EEL =     -4226.1181  VDWAALS    =     13689.2443
 EELEC  =   -111139.7699  EHBOND  =         0.0000  RESTRAINT  =         0.0000
 EKCMT  =         0.0000  VIRIAL  =     31660.8405  VOLUME     =    205171.0204
                                                    Density    =         1.0345
 Ewald error estimate:   0.8723E-04
 ------------------------------------------------------------------------------

      A V E R A G E S   O V E R     100 S T E P S

 NSTEP =    50000   TIME(PS) =     100.000  TEMP(K) =   297.91  PRESS =     6.3
 Etot   =    -60240.9186  EKtot   =     12396.8918  EPtot      =    -72637.8104
 BOND   =       287.3342  ANGLE   =       596.9492  DIHED      =       963.3240
 1-4 NB =       308.7940  1-4 EEL =     -4246.2275  VDWAALS    =      8536.5743
 EELEC  =    -79194.9164  EHBOND  =         0.0000  RESTRAINT  =       110.3578
 EAMBER (non-restraint)  =    -72748.1682
 EKCMT  =      5821.9811  VIRIAL  =      5795.5138  VOLUME     =    205556.2192
                                                    Density    =         1.0326
 Ewald error estimate:   0.7408E-04
 ------------------------------------------------------------------------------

      R M S  F L U C T U A T I O N S

 NSTEP =    50000   TIME(PS) =     100.000  TEMP(K) =    12.91  PRESS =   149.8
 Etot   =      1489.2331  EKtot   =       537.4214  EPtot      =       959.3830
 BOND   =        40.0533  ANGLE   =        60.6842  DIHED      =        12.3230
 1-4 NB =         7.1429  1-4 EEL =        21.1822  VDWAALS    =       354.2083
 EELEC  =      1215.3325  EHBOND  =         0.0000  RESTRAINT  =         7.4268
 EAMBER (non-restraint)  =       951.9562
 EKCMT  =       122.8509  VIRIAL  =       701.8798  VOLUME     =      1185.5086
                                                    Density    =         0.0061
 Ewald error estimate:   0.5245E-04
 ------------------------------------------------------------------------------
