-------------------------------------------------------
          Amber 10 SANDER                              2008
          -------------------------------------------------------

  [-O]verwriting output

File Assignments:

 Here is the input file:

*******************************************************
*****************************       eq5.in
*******************************************************
Equilibrating. 5.0 kcal/mol restraints on DNA/RNA.
 &cntrl
    ntpr=500, ntwr=500, ntwx=500, ntwe=500, nscm=5000,
    ntf=2, ntc=2, ntb=2, ntp=1, ntt=1,
    tautp=0.5, taup=1.0, cut=9.0,
    nstlim=50000, t=0.0, dt=0.002, tol = 0.00000001,
    imin=0, ntx=1, irest=0, ioutfm=1,
    ntr=1,
    nmropt=1,
 /
 &wt type = 'END', /
Hold RNA Steady
5.0
RES 1 45
END
END

--------------------------------------------------------------------------------
   1.  RESOURCE   USE:
--------------------------------------------------------------------------------

 getting new box info from bottom of inpcrd

 NATOM  =   20563 NTYPES =      20 NBONH =   19805 MBONA  =     795
 NTHETH =    1041 MTHETA =    1201 NPHIH =    2116 MPHIA  =    2348
 NHPARM =       0 NPARM  =       0 NNB   =   32409 NRES   =    6525
 NBONA  =     795 NTHETA =    1201 NPHIA =    2348 NUMBND =      51
 NUMANG =     112 NPTRA  =      62 NATYP =      33 NPHB   =       1
 IFBOX  =       2 NMXRS  =      34 IFCAP =       0 NEXTRA =       0
 NCOPY  =       0

     BOX TYPE: TRUNCATED OCTAHEDRON

--------------------------------------------------------------------------------
   2.  CONTROL  DATA  FOR  THE  RUN
--------------------------------------------------------------------------------

General flags:
     imin    =       0, nmropt  =       1

Nature and format of input:
     ntx     =       1, irest   =       0, ntrx    =       1

Nature and format of output:
     ntxo    =       1, ntpr    =     500, ntrx    =       1, ntwr    =     500
     iwrap   =       0, ntwx    =     500, ntwv    =       0, ntwe    =     500
     ioutfm  =       1, ntwprt  =       0, idecomp =       0, rbornstat=      0

Potential function:
     ntf     =       2, ntb     =       2, igb     =       0, nsnb    =      25
     ipol    =       0, gbsa    =       0, iesp    =       0
     dielc   =   1.00000, cut     =   9.00000, intdiel =   1.00000
     scnb    =   2.00000, scee    =   1.20000

Frozen or restrained atoms:
     ibelly  =       0, ntr     =       1

Molecular dynamics:
     nstlim  =     50000, nscm    =      5000, nrespa  =         1
     t       =   0.00000, dt      =   0.00200, vlimit  =  20.00000

Berendsen (weak-coupling) temperature regulation:
     temp0   = 300.00000, tempi   =   0.00000, tautp   =   0.50000

Pressure regulation:
     ntp     =       1
     pres0   =   1.00000, comp    =  44.60000, taup    =   1.00000

SHAKE:
     ntc     =       2, jfastw  =       0
     tol     =   0.00000

NMR refinement options:
     iscale  =       0, noeskp  =       1, ipnlty  =       1, mxsub   =       1
     scalm   = 100.00000, pencut  =   0.10000, tausw   =   0.10000

Ewald parameters:
     verbose =       0, ew_type =       0, nbflag  =       1, use_pme =       1
     vdwmeth =       1, eedmeth =       1, netfrc  =       1
     Box X =   67.778   Box Y =   67.778   Box Z =   67.778
     Alpha =  109.471   Beta  =  109.471   Gamma =  109.471
     NFFT1 =   70       NFFT2 =   70       NFFT3 =   70
     Cutoff=    9.000   Tol   =0.100E-04
     Ewald Coefficient =  0.30768
     Interpolation order =    4

    LOADING THE CONSTRAINED ATOMS AS GROUPS

   5.  REFERENCE ATOM COORDINATES

    ----- READING GROUP     1; TITLE:
 Hold RNA Steady

     GROUP    1 HAS HARMONIC CONSTRAINTS     5.00000
 GRP    1 RES    1 TO    45
      Number of atoms in this group  =  1185
    ----- END OF GROUP READ -----

--------------------------------------------------------------------------------
   3.  ATOMIC COORDINATES AND VELOCITIES
--------------------------------------------------------------------------------

 begin time read from input coords =     0.000 ps

           Begin reading energy term weight changes/NMR restraints
 WEIGHT CHANGES:
                         ** No weight changes given **

 RESTRAINTS:
  No valid redirection requests found
                          ** No restraint defined **

                  Done reading weight changes/NMR restraints

 Number of triangulated 3-point waters found:     6449

     Sum of charges from parm topology file =   0.00000001
     Forcing neutrality...

--------------------------------------------------------------------------------
   4.  RESULTS
 NSTEP =        0   TIME(PS) =       0.000  TEMP(K) =     0.00  PRESS = -6225.9
 Etot   =    -98527.0135  EKtot   =         0.0000  EPtot      =    -98527.0135
 BOND   =        74.1176  ANGLE   =       231.5162  DIHED      =       922.7939
 1-4 NB =       281.6608  1-4 EEL =     -4249.7120  VDWAALS    =     13617.6369
 EELEC  =   -109405.0270  EHBOND  =         0.0000  RESTRAINT  =         0.0000
 EKCMT  =         0.0000  VIRIAL  =     32219.2892  VOLUME     =    239681.7774
                                                    Density    =         0.8856
 Ewald error estimate:   0.1432E-03
 ------------------------------------------------------------------------------

      A V E R A G E S   O V E R     100 S T E P S

 NSTEP =    50000   TIME(PS) =     100.000  TEMP(K) =   297.87  PRESS =   -42.1
 Etot   =    -59998.3245  EKtot   =     12395.1222  EPtot      =    -72393.4467
 BOND   =       287.5943  ANGLE   =       592.3116  DIHED      =       999.6429
 1-4 NB =       311.6122  1-4 EEL =     -4263.7979  VDWAALS    =      8545.6369
 EELEC  =    -79040.2145  EHBOND  =         0.0000  RESTRAINT  =       173.7678
 EAMBER (non-restraint)  =    -72567.2145
 EKCMT  =      5816.9794  VIRIAL  =      6011.0789  VOLUME     =    207331.7039
                                                    Density    =         1.0243
 Ewald error estimate:   0.7215E-04
 ------------------------------------------------------------------------------

      R M S  F L U C T U A T I O N S

 NSTEP =    50000   TIME(PS) =     100.000  TEMP(K) =    12.52  PRESS =   165.3
 Etot   =      1355.3518  EKtot   =       521.0021  EPtot      =       844.0268
 BOND   =        34.1550  ANGLE   =        50.9978  DIHED      =        12.1077
 1-4 NB =         7.4652  1-4 EEL =        16.0180  VDWAALS    =       337.5426
 EELEC  =      1101.3397  EHBOND  =         0.0000  RESTRAINT  =        11.3726
 EAMBER (non-restraint)  =       832.6542
 EKCMT  =       116.2458  VIRIAL  =       737.7447  VOLUME     =      4703.8412
                                                    Density    =         0.0217
 Ewald error estimate:   0.5816E-04
 ------------------------------------------------------------------------------
